19
9
Fe 	8.963000	5.173800	1.969500
C 	10.171200	4.227600	0.796800
N 	10.876000	3.716000	0.043100
C 	10.511600	5.693900	3.034700
N 	11.473700	5.985800	3.596300
C 	9.177400	6.694700	0.796800
C 	7.537800	4.600500	0.796800
N 	9.268100	7.560900	0.043100
N 	6.742300	4.246000	0.043100
N 	7.717999	6.253790	3.177749
C 	6.510873	7.001156	4.917336
N 	6.766452	7.121698	2.770135
C 	7.548894	6.197199	4.505556
C 	6.038560	7.589102	3.791432
C 	8.588470	3.595964	3.157640
N 	9.465262	2.700930	3.662269
C 	7.377821	3.205403	3.728882
C 	7.571194	2.149321	4.598906
C 	8.886850	1.828738	4.537429
