16
11
Fe 	8.963000	5.173800	1.969500
C 	8.637400	3.572600	3.034700
N 	8.409000	2.593400	3.596300
C 	10.171200	4.227600	0.796800
N 	10.876000	3.716000	0.043100
C 	7.737300	6.256300	3.034700
N 	7.003500	6.943700	3.596300
C 	9.177400	6.694700	0.796800
C 	7.537800	4.600500	0.796800
N 	9.268100	7.560900	0.043100
N 	6.742300	4.246000	0.043100
N 	10.529983	5.723277	3.149881
C 	11.653391	5.042384	3.290477
C 	11.931564	6.837154	4.460857
C 	10.709410	6.860902	3.901791
N 	12.524881	5.685385	4.074994
