18
7
Fe 	8.963000	5.173800	1.969500
C 	10.511600	5.693900	3.034700
N 	11.473700	5.985800	3.596300
C 	9.177400	6.694700	0.796800
C 	7.537800	4.600500	0.796800
N 	9.268100	7.560900	0.043100
N 	6.742300	4.246000	0.043100
N 	7.674614	6.179866	3.217208
C 	6.986754	7.472907	2.948793
C 	6.394855	8.047281	4.217625
P 	8.586390	3.397429	3.330515
N 	7.825030	2.128473	3.036482
C 	9.166719	3.427916	5.039245
C 	8.333437	2.564234	6.017456
P 	10.434772	4.087960	0.693472
C 	9.491547	1.690185	-0.097131
C 	11.958158	4.868361	0.138036
N 	10.526517	2.646022	0.155520
