23
5
Fe 	8.963000	5.173800	1.969500
C 	9.177400	6.694700	0.796800
C 	7.537800	4.600500	0.796800
N 	9.268100	7.560900	0.043100
N 	6.742300	4.246000	0.043100
N 	10.121187	5.911125	3.503817
N 	9.033546	3.503117	3.032953
N 	10.620621	4.102537	0.972860
N 	7.427220	6.298163	3.023156
C 	8.170019	7.478538	3.494849
O 	6.889656	8.565235	5.286546
C 	10.819068	4.422526	-0.470418
C 	9.596323	3.761824	4.408387
C 	10.125207	2.684511	1.022667
C 	6.845857	5.553371	4.165777
C 	10.610374	4.833023	4.354351
C 	6.248915	6.800261	2.235399
C 	11.997071	3.791953	-1.217875
C 	9.728871	2.346968	2.435567
O 	7.069386	9.575022	3.327986
C 	7.367908	8.640270	4.115279
C 	9.380556	6.942489	4.238614
C 	11.939302	4.270492	1.652798
