27
5
Fe 	8.963000	5.173800	1.969500
C 	9.177400	6.694700	0.796800
C 	7.537800	4.600500	0.796800
N 	9.268100	7.560900	0.043100
N 	6.742300	4.246000	0.043100
C 	8.667088	3.501560	3.116621
C 	8.790677	2.247822	2.541049
O 	7.844072	0.040674	5.290159
C 	8.589790	1.090499	3.305910
C 	8.170250	1.183990	4.573926
C 	8.279460	3.553163	4.444575
C 	8.036353	2.387176	5.190171
C 	10.634545	5.739402	3.020462
N 	10.850796	5.735749	4.347366
C 	13.205316	8.031637	6.205418
O 	11.571433	6.158256	2.272102
Cl 	12.636236	4.745944	7.387823
C 	14.262609	7.366768	5.397009
C 	12.042409	6.049228	5.118932
C 	12.816822	7.357757	4.955489
C 	12.733021	4.842902	5.600657
N 	7.716454	6.159227	3.071275
C 	5.801924	7.458523	4.262021
C 	6.860305	6.737308	3.592998
N 	10.134791	4.235911	0.785285
C 	11.451632	3.073071	-1.091621
C 	10.715864	3.733996	-0.032941
