18
5
Fe 	8.963000	5.173800	1.969500
C 	7.737300	6.256300	3.034700
N 	7.003500	6.943700	3.596300
C 	7.537800	4.600500	0.796800
N 	6.742300	4.246000	0.043100
N 	9.482073	6.589648	0.699367
N 	10.436753	5.818950	3.157354
C 	10.343706	7.466831	0.777025
C 	10.736776	5.396574	4.391311
C 	11.183709	6.948609	2.956541
N 	11.143070	7.702621	1.837907
C 	11.956767	7.226661	4.078567
N 	11.642061	6.218518	4.941670
N 	12.825054	8.190205	4.339454
O 	10.186586	3.852331	1.119124
O 	8.637836	3.669308	3.210093
C 	9.426538	2.564216	2.907470
C 	9.750793	2.519039	1.444268
