27
3
Fe 	8.963000	5.173800	1.969500
C 	7.537800	4.600500	0.796800
N 	6.742300	4.246000	0.043100
N 	9.999464	6.224985	3.460320
O 	7.611237	6.090656	2.684415
N 	10.542322	4.158700	1.119653
O 	8.887033	3.335424	3.084859
O 	9.338333	6.666560	0.873051
C 	8.932529	2.011904	5.161418
C 	10.228075	3.013633	0.307867
C 	10.071196	6.620165	-0.339303
C 	6.157031	8.525891	1.538190
C 	9.466256	1.967339	1.086724
C 	9.195283	7.861132	1.601065
C 	9.666352	2.194179	2.580076
C 	10.544931	5.279508	4.496337
C 	8.753260	3.451489	4.534111
C 	11.483512	6.011679	-0.204444
C 	6.590314	8.122388	2.697536
C 	7.945819	1.085776	4.875654
C 	8.084279	7.504684	2.782787
C 	9.442726	4.561360	5.226377
N 	10.444196	8.213548	2.242558
C 	5.746041	8.047370	3.917558
C 	11.093852	7.080407	2.911264
C 	8.993793	7.235192	3.996677
C 	11.726901	4.901046	0.838055
