25
3
Fe 	8.963000	5.173800	1.969500
C 	7.537800	4.600500	0.796800
N 	6.742300	4.246000	0.043100
N 	7.661519	6.711772	2.535005
N 	9.822680	6.507311	0.641640
C 	10.075840	7.836503	0.779010
C 	7.606833	8.064645	3.057376
C 	10.872991	8.275771	-0.247133
C 	9.703845	8.741359	1.935555
C 	10.432966	6.155805	-0.534845
C 	11.085131	7.214373	-1.091983
C 	8.255634	9.060469	2.155015
N 	8.102661	4.117203	3.554890
C 	6.940694	2.824118	5.724244
C 	8.850376	3.523968	4.486505
C 	6.775943	4.062235	3.707972
C 	8.304721	2.874254	5.578042
C 	6.162627	3.430809	4.776818
N 	10.466267	5.774088	3.269164
C 	10.406799	6.383739	4.474622
C 	11.676869	6.787749	4.884714
C 	11.772129	5.774678	2.903928
C 	12.545765	6.385549	3.864974
C 	9.946635	3.625075	1.311378
N 	10.438995	2.695967	0.849887
